13

C    -0.035140     0.046155     0.057118
C     1.469133     0.128508    -0.099846
O     1.938054    -1.221886    -0.144883
C     3.262185    -1.392637    -0.283612
O     4.026766    -0.387048    -0.367397
O     3.682858    -2.578943    -0.323876
O    -0.512695     1.383600     0.103430
Li     5.312494    -1.724719    -0.498272
H    -0.278294    -0.497968     0.977957
H    -0.462498    -0.502545    -0.791071
H     1.918537     0.659374     0.742377
H     1.734909     0.654401    -1.019560
H    -1.466134     1.369715     0.200211